<?xml version="1.0" encoding="UTF-8"?>

<!-- generated on 04/16/20 13:40:34 by Eclipse SUMO netedit Version 1.4.0
<configuration xmlns:xsi="http://www.w3.org/2001/XMLSchema-instance" xsi:noNamespaceSchemaLocation="http://sumo.dlr.de/xsd/netconvertConfiguration.xsd">

    <output>
        <output-file value="E:\Sumo\complex2.net.xml"/>
    </output>

    <processing>
        <offset.disable-normalization value="true"/>
    </processing>

    <junctions>
        <no-turnarounds value="true"/>
    </junctions>

    <netedit>
        <route-files value="E:\Sumo\complex2.rou.xml"/>
    </netedit>

    <report>
        <aggregate-warnings value="5"/>
    </report>

</configuration>
-->

<net version="1.3" junctionCornerDetail="5" limitTurnSpeed="5.50" xmlns:xsi="http://www.w3.org/2001/XMLSchema-instance" xsi:noNamespaceSchemaLocation="http://sumo.dlr.de/xsd/net_file.xsd">

    <location netOffset="0.00,0.00" convBoundary="-65.76,-76.84,190.78,122.91" origBoundary="10000000000.00,10000000000.00,-10000000000.00,-10000000000.00" projParameter="!"/>

    <edge id=":gneJ0_0" function="internal">
        <lane id=":gneJ0_0_0" index="0" speed="6.52" length="8.69" shape="4.29,68.99 1.95,69.31 0.22,70.28 -0.87,71.93 -1.35,74.25"/>
    </edge>
    <edge id=":gneJ0_1" function="internal">
        <lane id=":gneJ0_1_0" index="0" speed="13.89" length="13.81" shape="4.29,68.99 0.73,68.92 -2.61,68.76 -5.94,68.50 -9.49,68.12"/>
    </edge>
    <edge id=":gneJ0_2" function="internal">
        <lane id=":gneJ0_2_0" index="0" speed="13.89" length="13.46" shape="-9.11,64.94 -5.62,65.32 -2.41,65.57 0.81,65.72 4.32,65.79"/>
    </edge>
    <edge id=":gneJ0_3" function="internal">
        <lane id=":gneJ0_3_0" index="0" speed="8.02" length="5.64" shape="-9.11,64.94 -5.52,65.89 -3.98,67.05"/>
    </edge>
    <edge id=":gneJ0_6" function="internal">
        <lane id=":gneJ0_6_0" index="0" speed="8.02" length="8.02" shape="-3.98,67.05 -3.03,67.76 -1.64,70.55 -1.35,74.25"/>
    </edge>
    <edge id=":gneJ0_4" function="internal">
        <lane id=":gneJ0_4_0" index="0" speed="6.53" length="8.70" shape="-4.54,74.05 -4.73,71.69 -5.62,69.91 -7.20,68.72 -9.49,68.12"/>
    </edge>
    <edge id=":gneJ0_5" function="internal">
        <lane id=":gneJ0_5_0" index="0" speed="8.01" length="13.66" shape="-4.54,74.05 -3.80,70.41 -2.07,67.82 0.63,66.28 4.32,65.79"/>
    </edge>
    <edge id=":gneJ1_0" function="internal">
        <lane id=":gneJ1_0_0" index="0" speed="6.76" length="9.46" shape="69.37,69.41 66.81,69.80 64.95,70.91 63.80,72.72 63.35,75.24"/>
    </edge>
    <edge id=":gneJ1_1" function="internal">
        <lane id=":gneJ1_1_0" index="0" speed="13.89" length="14.68" shape="69.37,69.41 54.70,69.45"/>
    </edge>
    <edge id=":gneJ1_2" function="internal">
        <lane id=":gneJ1_2_0" index="0" speed="7.91" length="6.07" shape="69.37,69.41 65.44,68.90 63.63,67.82"/>
    </edge>
    <edge id=":gneJ1_12" function="internal">
        <lane id=":gneJ1_12_0" index="0" speed="7.91" length="8.31" shape="63.63,67.82 62.67,67.25 61.07,64.45 60.64,60.51"/>
    </edge>
    <edge id=":gneJ1_3" function="internal">
        <lane id=":gneJ1_3_0" index="0" speed="6.40" length="9.04" shape="63.83,60.62 64.11,63.09 65.11,64.85 66.85,65.89 69.32,66.21"/>
    </edge>
    <edge id=":gneJ1_4" function="internal">
        <lane id=":gneJ1_4_0" index="0" speed="13.89" length="14.63" shape="63.83,60.62 63.35,75.24"/>
    </edge>
    <edge id=":gneJ1_5" function="internal">
        <lane id=":gneJ1_5_0" index="0" speed="8.13" length="6.02" shape="63.83,60.62 63.15,64.51 62.05,66.26"/>
    </edge>
    <edge id=":gneJ1_13" function="internal">
        <lane id=":gneJ1_13_0" index="0" speed="8.13" length="8.40" shape="62.05,66.26 61.40,67.28 58.58,68.93 54.70,69.45"/>
    </edge>
    <edge id=":gneJ1_6" function="internal">
        <lane id=":gneJ1_6_0" index="0" speed="6.67" length="9.35" shape="54.73,66.25 57.24,65.91 59.06,64.84 60.19,63.04 60.64,60.51"/>
    </edge>
    <edge id=":gneJ1_7" function="internal">
        <lane id=":gneJ1_7_0" index="0" speed="13.89" length="14.60" shape="54.73,66.25 69.32,66.21"/>
    </edge>
    <edge id=":gneJ1_8" function="internal">
        <lane id=":gneJ1_8_0" index="0" speed="7.96" length="5.80" shape="54.73,66.25 58.61,66.85 60.20,67.84"/>
    </edge>
    <edge id=":gneJ1_14" function="internal">
        <lane id=":gneJ1_14_0" index="0" speed="7.96" length="8.48" shape="60.20,67.84 61.34,68.54 62.92,71.34 63.35,75.24"/>
    </edge>
    <edge id=":gneJ1_9" function="internal">
        <lane id=":gneJ1_9_0" index="0" speed="6.46" length="9.03" shape="60.15,75.14 59.88,72.67 58.88,70.90 57.15,69.83 54.70,69.45"/>
    </edge>
    <edge id=":gneJ1_10" function="internal">
        <lane id=":gneJ1_10_0" index="0" speed="13.89" length="14.64" shape="60.15,75.14 60.64,60.51"/>
    </edge>
    <edge id=":gneJ1_11" function="internal">
        <lane id=":gneJ1_11_0" index="0" speed="8.21" length="5.99" shape="60.15,75.14 60.83,71.28 61.94,69.53"/>
    </edge>
    <edge id=":gneJ1_15" function="internal">
        <lane id=":gneJ1_15_0" index="0" speed="8.21" length="8.46" shape="61.94,69.53 62.59,68.51 65.42,66.82 69.32,66.21"/>
    </edge>
    <edge id=":gneJ15_0" function="internal">
        <lane id=":gneJ15_0_0" index="0" speed="6.11" length="9.92" shape="65.05,123.02 62.21,123.52 60.22,122.90 59.07,121.16 58.76,118.30"/>
    </edge>
    <edge id=":gneJ15_1" function="internal">
        <lane id=":gneJ15_1_0" index="0" speed="3.92" length="3.31" shape="61.96,118.41 62.06,119.36 62.45,119.94 63.11,120.14 64.06,119.98"/>
    </edge>
    <edge id=":gneJ2_0" function="internal">
        <lane id=":gneJ2_0_0" index="0" speed="6.58" length="9.24" shape="145.12,68.41 142.60,68.74 140.79,69.79 139.68,71.56 139.30,74.05"/>
    </edge>
    <edge id=":gneJ2_1" function="internal">
        <lane id=":gneJ2_1_0" index="0" speed="13.89" length="14.61" shape="145.12,68.41 130.52,68.46"/>
    </edge>
    <edge id=":gneJ2_2" function="internal">
        <lane id=":gneJ2_2_0" index="0" speed="7.92" length="5.81" shape="145.12,68.41 141.20,67.81 139.64,66.83"/>
    </edge>
    <edge id=":gneJ2_12" function="internal">
        <lane id=":gneJ2_12_0" index="0" speed="7.92" length="8.56" shape="139.64,66.83 138.47,66.09 136.94,63.26 136.60,59.31"/>
    </edge>
    <edge id=":gneJ2_3" function="internal">
        <lane id=":gneJ2_3_0" index="0" speed="6.40" length="9.04" shape="139.79,59.49 140.01,61.97 140.97,63.75 142.69,64.83 145.15,65.21"/>
    </edge>
    <edge id=":gneJ2_4" function="internal">
        <lane id=":gneJ2_4_0" index="0" speed="13.89" length="14.57" shape="139.79,59.49 139.30,74.05"/>
    </edge>
    <edge id=":gneJ2_5" function="internal">
        <lane id=":gneJ2_5_0" index="0" speed="8.30" length="5.82" shape="139.79,59.49 139.03,63.36 138.01,64.94"/>
    </edge>
    <edge id=":gneJ2_13" function="internal">
        <lane id=":gneJ2_13_0" index="0" speed="8.30" length="8.67" shape="138.01,64.94 137.22,66.15 134.39,67.85 130.52,68.46"/>
    </edge>
    <edge id=":gneJ2_6" function="internal">
        <lane id=":gneJ2_6_0" index="0" speed="6.86" length="9.59" shape="130.47,65.26 133.03,64.85 134.90,63.73 136.09,61.88 136.60,59.31"/>
    </edge>
    <edge id=":gneJ2_7" function="internal">
        <lane id=":gneJ2_7_0" index="0" speed="13.89" length="14.68" shape="130.47,65.26 145.15,65.21"/>
    </edge>
    <edge id=":gneJ2_8" function="internal">
        <lane id=":gneJ2_8_0" index="0" speed="7.95" length="6.07" shape="130.47,65.26 134.37,65.76 136.21,66.84"/>
    </edge>
    <edge id=":gneJ2_14" function="internal">
        <lane id=":gneJ2_14_0" index="0" speed="7.95" length="8.23" shape="136.21,66.84 137.14,67.39 138.78,70.15 139.30,74.05"/>
    </edge>
    <edge id=":gneJ2_9" function="internal">
        <lane id=":gneJ2_9_0" index="0" speed="6.45" length="9.03" shape="136.10,74.01 135.77,71.55 134.73,69.80 132.98,68.77 130.52,68.46"/>
    </edge>
    <edge id=":gneJ2_10" function="internal">
        <lane id=":gneJ2_10_0" index="0" speed="13.89" length="14.71" shape="136.10,74.01 136.60,59.31"/>
    </edge>
    <edge id=":gneJ2_11" function="internal">
        <lane id=":gneJ2_11_0" index="0" speed="8.06" length="6.20" shape="136.10,74.01 136.70,70.13 137.89,68.20"/>
    </edge>
    <edge id=":gneJ2_15" function="internal">
        <lane id=":gneJ2_15_0" index="0" speed="8.06" length="8.20" shape="137.89,68.20 138.41,67.37 141.23,65.73 145.15,65.21"/>
    </edge>
    <edge id=":gneJ3_0" function="internal">
        <lane id=":gneJ3_0_0" index="0" speed="7.15" length="10.05" shape="148.35,14.02 145.70,14.57 143.77,15.83 142.53,17.80 142.01,20.46"/>
    </edge>
    <edge id=":gneJ3_1" function="internal">
        <lane id=":gneJ3_1_0" index="0" speed="13.89" length="14.95" shape="148.35,14.02 133.41,14.68"/>
    </edge>
    <edge id=":gneJ3_2" function="internal">
        <lane id=":gneJ3_2_0" index="0" speed="7.88" length="6.21" shape="148.35,14.02 144.36,13.72 142.41,12.68"/>
    </edge>
    <edge id=":gneJ3_12" function="internal">
        <lane id=":gneJ3_12_0" index="0" speed="7.88" length="8.25" shape="142.41,12.68 141.51,12.20 139.80,9.46 139.23,5.50"/>
    </edge>
    <edge id=":gneJ3_3" function="internal">
        <lane id=":gneJ3_3_0" index="0" speed="6.36" length="9.04" shape="142.43,5.50 142.79,7.98 143.86,9.69 145.64,10.64 148.13,10.82"/>
    </edge>
    <edge id=":gneJ3_4" function="internal">
        <lane id=":gneJ3_4_0" index="0" speed="13.89" length="14.97" shape="142.43,5.50 142.01,20.46"/>
    </edge>
    <edge id=":gneJ3_5" function="internal">
        <lane id=":gneJ3_5_0" index="0" speed="8.17" length="6.35" shape="142.43,5.50 141.87,9.45 140.66,11.47"/>
    </edge>
    <edge id=":gneJ3_13" function="internal">
        <lane id=":gneJ3_13_0" index="0" speed="8.17" length="8.27" shape="140.66,11.47 140.18,12.29 137.36,14.04 133.41,14.68"/>
    </edge>
    <edge id=":gneJ3_6" function="internal">
        <lane id=":gneJ3_6_0" index="0" speed="6.71" length="9.53" shape="133.35,11.48 135.92,11.06 137.76,9.92 138.86,8.07 139.23,5.50"/>
    </edge>
    <edge id=":gneJ3_7" function="internal">
        <lane id=":gneJ3_7_0" index="0" speed="13.89" length="14.80" shape="133.35,11.48 148.13,10.82"/>
    </edge>
    <edge id=":gneJ3_8" function="internal">
        <lane id=":gneJ3_8_0" index="0" speed="7.87" length="5.71" shape="133.35,11.48 137.33,11.97 138.78,12.84"/>
    </edge>
    <edge id=":gneJ3_14" function="internal">
        <lane id=":gneJ3_14_0" index="0" speed="7.87" length="8.79" shape="138.78,12.84 140.10,13.63 141.66,16.46 142.01,20.46"/>
    </edge>
    <edge id=":gneJ3_9" function="internal">
        <lane id=":gneJ3_9_0" index="0" speed="6.35" length="9.04" shape="138.81,20.28 138.60,17.79 137.63,16.02 135.90,14.99 133.41,14.68"/>
    </edge>
    <edge id=":gneJ3_10" function="internal">
        <lane id=":gneJ3_10_0" index="0" speed="13.89" length="14.79" shape="138.81,20.28 139.23,5.50"/>
    </edge>
    <edge id=":gneJ3_11" function="internal">
        <lane id=":gneJ3_11_0" index="0" speed="8.54" length="5.83" shape="138.81,20.28 139.59,16.37 140.57,14.80"/>
    </edge>
    <edge id=":gneJ3_15" function="internal">
        <lane id=":gneJ3_15_0" index="0" speed="8.54" length="8.92" shape="140.57,14.80 141.40,13.49 144.24,11.64 148.13,10.82"/>
    </edge>
    <edge id=":gneJ4_0" function="internal">
        <lane id=":gneJ4_0_0" index="0" speed="6.17" length="6.02" shape="139.05,95.49 138.83,97.06 138.20,98.34 137.17,99.32 135.74,100.00"/>
    </edge>
    <edge id=":gneJ4_1" function="internal">
        <lane id=":gneJ4_1_0" index="0" speed="3.95" length="2.01" shape="134.75,96.96 135.23,96.73 135.57,96.40 135.78,95.98 135.85,95.45"/>
    </edge>
    <edge id=":gneJ5_0" function="internal">
        <lane id=":gneJ5_0_0" index="0" speed="6.79" length="9.53" shape="71.12,15.96 68.58,16.38 66.74,17.52 65.59,19.37 65.15,21.94"/>
    </edge>
    <edge id=":gneJ5_1" function="internal">
        <lane id=":gneJ5_1_0" index="0" speed="13.89" length="14.67" shape="71.12,15.96 56.45,16.25"/>
    </edge>
    <edge id=":gneJ5_2" function="internal">
        <lane id=":gneJ5_2_0" index="0" speed="7.95" length="5.94" shape="71.12,15.96 67.22,15.49 65.48,14.48"/>
    </edge>
    <edge id=":gneJ5_12" function="internal">
        <lane id=":gneJ5_12_0" index="0" speed="7.95" length="8.36" shape="65.48,14.48 64.44,13.87 62.79,11.11 62.26,7.21"/>
    </edge>
    <edge id=":gneJ5_3" function="internal">
        <lane id=":gneJ5_3_0" index="0" speed="6.44" length="9.03" shape="65.46,7.23 65.79,9.70 66.83,11.44 68.59,12.46 71.06,12.77"/>
    </edge>
    <edge id=":gneJ5_4" function="internal">
        <lane id=":gneJ5_4_0" index="0" speed="13.89" length="14.71" shape="65.46,7.23 65.15,21.94"/>
    </edge>
    <edge id=":gneJ5_5" function="internal">
        <lane id=":gneJ5_5_0" index="0" speed="8.15" length="6.11" shape="65.46,7.23 64.87,11.12 63.74,12.98"/>
    </edge>
    <edge id=":gneJ5_13" function="internal">
        <lane id=":gneJ5_13_0" index="0" speed="8.15" length="8.34" shape="63.74,12.98 63.17,13.91 60.36,15.63 56.45,16.25"/>
    </edge>
    <edge id=":gneJ5_6" function="internal">
        <lane id=":gneJ5_6_0" index="0" speed="6.69" length="9.39" shape="56.39,13.05 58.94,12.65 60.77,11.54 61.88,9.72 62.26,7.21"/>
    </edge>
    <edge id=":gneJ5_7" function="internal">
        <lane id=":gneJ5_7_0" index="0" speed="13.89" length="14.67" shape="56.39,13.05 71.06,12.77"/>
    </edge>
    <edge id=":gneJ5_8" function="internal">
        <lane id=":gneJ5_8_0" index="0" speed="7.91" length="5.93" shape="56.39,13.05 60.34,13.55 62.02,14.54"/>
    </edge>
    <edge id=":gneJ5_14" function="internal">
        <lane id=":gneJ5_14_0" index="0" speed="7.91" length="8.47" shape="62.02,14.54 63.11,15.19 64.71,17.99 65.15,21.94"/>
    </edge>
    <edge id=":gneJ5_9" function="internal">
        <lane id=":gneJ5_9_0" index="0" speed="6.40" length="9.04" shape="61.95,21.83 61.68,19.35 60.67,17.59 58.93,16.56 56.45,16.25"/>
    </edge>
    <edge id=":gneJ5_10" function="internal">
        <lane id=":gneJ5_10_0" index="0" speed="13.89" length="14.63" shape="61.95,21.83 62.26,7.21"/>
    </edge>
    <edge id=":gneJ5_11" function="internal">
        <lane id=":gneJ5_11_0" index="0" speed="8.24" length="5.92" shape="61.95,21.83 62.63,17.93 63.67,16.26"/>
    </edge>
    <edge id=":gneJ5_15" function="internal">
        <lane id=":gneJ5_15_0" index="0" speed="8.24" length="8.56" shape="63.67,16.26 64.38,15.12 67.18,13.40 71.06,12.77"/>
    </edge>
    <edge id=":gneJ6_0" function="internal">
        <lane id=":gneJ6_0_0" index="0" speed="7.27" length="2.83" shape="65.03,-33.79 65.47,-33.08 65.70,-32.55 65.79,-31.97 65.80,-31.14"/>
    </edge>
    <edge id=":gneJ6_1" function="internal">
        <lane id=":gneJ6_1_0" index="0" speed="13.89" length="0.94" shape="62.60,-31.17 62.60,-31.45 62.57,-31.64 62.49,-31.82 62.35,-32.05"/>
    </edge>
    <edge id=":gneJ7_0" function="internal">
        <lane id=":gneJ7_0_0" index="0" speed="7.13" length="2.99" shape="-1.56,17.34 -2.44,17.34 -3.05,17.25 -3.61,16.99 -4.35,16.51"/>
    </edge>
    <edge id=":gneJ7_1" function="internal">
        <lane id=":gneJ7_1_0" index="0" speed="13.89" length="1.00" shape="-2.55,13.87 -2.31,14.03 -2.12,14.11 -1.92,14.14 -1.62,14.15"/>
    </edge>
    <edge id=":gneJ8_0" function="internal">
        <lane id=":gneJ8_0_0" index="0" speed="13.89" length="0.72" shape="139.22,-34.10 139.22,-34.31 139.20,-34.46 139.15,-34.59 139.06,-34.79"/>
    </edge>
    <edge id=":gneJ8_1" function="internal">
        <lane id=":gneJ8_1_0" index="0" speed="8.31" length="2.15" shape="141.95,-36.16 142.22,-35.59 142.36,-35.17 142.41,-34.73 142.42,-34.10"/>
    </edge>

    <edge id="-gneE0" from="gneJ1" to="gneJ0" priority="-1">
        <lane id="-gneE0_0" index="0" speed="13.89" length="50.41" shape="54.70,69.45 4.29,68.99"/>
    </edge>
    <edge id="-gneE1" from="gneJ2" to="gneJ1" priority="-1">
        <lane id="-gneE1_0" index="0" speed="13.89" length="61.15" shape="130.52,68.46 69.37,69.41"/>
    </edge>
    <edge id="-gneE10" from="gneJ10" to="gneJ3" priority="-1">
        <lane id="-gneE10_0" index="0" speed="13.89" length="42.64" shape="190.89,11.12 148.35,14.02"/>
    </edge>
    <edge id="-gneE11" from="gneJ11" to="gneJ8" priority="-1">
        <lane id="-gneE11_0" index="0" speed="13.89" length="45.54" shape="122.36,-77.27 141.95,-36.16"/>
    </edge>
    <edge id="-gneE12" from="gneJ12" to="gneJ6" priority="-1">
        <lane id="-gneE12_0" index="0" speed="13.89" length="52.31" shape="36.62,-77.71 65.03,-33.79"/>
    </edge>
    <edge id="-gneE13" from="gneJ13" to="gneJ7" priority="-1">
        <lane id="-gneE13_0" index="0" speed="13.89" length="57.95" shape="-50.47,-18.71 -2.55,13.87"/>
    </edge>
    <edge id="-gneE14" from="gneJ14" to="gneJ0" priority="-1">
        <lane id="-gneE14_0" index="0" speed="13.89" length="46.08" shape="-7.38,120.04 -4.54,74.05"/>
    </edge>
    <edge id="-gneE15" from="gneJ15" to="gneJ1" priority="-1">
        <lane id="-gneE15_0" index="0" speed="13.89" length="43.19" shape="58.76,118.30 60.15,75.14"/>
    </edge>
    <edge id="-gneE16" from="gneJ15" to="gneJ4" priority="-1">
        <lane id="-gneE16_0" index="0" speed="13.89" length="74.35" shape="64.06,119.98 134.75,96.96"/>
    </edge>
    <edge id="-gneE17" from="gneJ18" to="gneJ0" priority="-1">
        <lane id="-gneE17_0" index="0" speed="13.89" length="56.86" shape="-65.57,58.24 -9.11,64.94"/>
    </edge>
    <edge id="-gneE2" from="gneJ3" to="gneJ2" priority="-1">
        <lane id="-gneE2_0" index="0" speed="13.89" length="39.09" shape="142.01,20.46 139.79,59.49"/>
    </edge>
    <edge id="-gneE3" from="gneJ4" to="gneJ2" priority="-1">
        <lane id="-gneE3_0" index="0" speed="13.89" length="21.44" shape="135.85,95.45 136.10,74.01"/>
    </edge>
    <edge id="-gneE4" from="gneJ5" to="gneJ1" priority="-1">
        <lane id="-gneE4_0" index="0" speed="13.89" length="38.70" shape="65.15,21.94 63.83,60.62"/>
    </edge>
    <edge id="-gneE5" from="gneJ3" to="gneJ5" priority="-1">
        <lane id="-gneE5_0" index="0" speed="13.89" length="62.30" shape="133.41,14.68 71.12,15.96"/>
    </edge>
    <edge id="-gneE6" from="gneJ6" to="gneJ5" priority="-1">
        <lane id="-gneE6_0" index="0" speed="13.89" length="38.38" shape="65.80,-31.14 65.46,7.23"/>
    </edge>
    <edge id="-gneE7" from="gneJ7" to="gneJ5" priority="-1">
        <lane id="-gneE7_0" index="0" speed="13.89" length="58.03" shape="-1.62,14.15 56.39,13.05"/>
    </edge>
    <edge id="-gneE8" from="gneJ8" to="gneJ3" priority="-1">
        <lane id="-gneE8_0" index="0" speed="13.89" length="39.60" shape="142.42,-34.10 142.43,5.50"/>
    </edge>
    <edge id="-gneE9" from="gneJ9" to="gneJ2" priority="-1">
        <lane id="-gneE9_0" index="0" speed="13.89" length="44.81" shape="189.94,68.78 145.12,68.41"/>
    </edge>
    <edge id="gneE0" from="gneJ0" to="gneJ1" priority="-1">
        <lane id="gneE0_0" index="0" speed="13.89" length="50.41" shape="4.32,65.79 54.73,66.25"/>
    </edge>
    <edge id="gneE1" from="gneJ1" to="gneJ2" priority="-1">
        <lane id="gneE1_0" index="0" speed="13.89" length="61.15" shape="69.32,66.21 130.47,65.26"/>
    </edge>
    <edge id="gneE10" from="gneJ3" to="gneJ10" priority="-1">
        <lane id="gneE10_0" index="0" speed="13.89" length="42.64" shape="148.13,10.82 190.67,7.92"/>
    </edge>
    <edge id="gneE11" from="gneJ8" to="gneJ11" priority="-1">
        <lane id="gneE11_0" index="0" speed="13.89" length="45.54" shape="139.06,-34.79 119.48,-75.90"/>
    </edge>
    <edge id="gneE12" from="gneJ6" to="gneJ12" priority="-1">
        <lane id="gneE12_0" index="0" speed="13.89" length="52.31" shape="62.35,-32.05 33.93,-75.97"/>
    </edge>
    <edge id="gneE13" from="gneJ7" to="gneJ13" priority="-1">
        <lane id="gneE13_0" index="0" speed="13.89" length="57.95" shape="-4.35,16.51 -52.27,-16.07"/>
    </edge>
    <edge id="gneE14" from="gneJ0" to="gneJ14" priority="-1">
        <lane id="gneE14_0" index="0" speed="13.89" length="46.08" shape="-1.35,74.25 -4.18,120.24"/>
    </edge>
    <edge id="gneE15" from="gneJ1" to="gneJ15" priority="-1">
        <lane id="gneE15_0" index="0" speed="13.89" length="43.19" shape="63.35,75.24 61.96,118.41"/>
    </edge>
    <edge id="gneE16" from="gneJ4" to="gneJ15" priority="-1">
        <lane id="gneE16_0" index="0" speed="13.89" length="74.35" shape="135.74,100.00 65.05,123.02"/>
    </edge>
    <edge id="gneE17" from="gneJ0" to="gneJ18" priority="-1">
        <lane id="gneE17_0" index="0" speed="13.89" length="56.86" shape="-9.49,68.12 -65.95,61.42"/>
    </edge>
    <edge id="gneE2" from="gneJ2" to="gneJ3" priority="-1">
        <lane id="gneE2_0" index="0" speed="13.89" length="39.09" shape="136.60,59.31 138.81,20.28"/>
    </edge>
    <edge id="gneE3" from="gneJ2" to="gneJ4" priority="-1">
        <lane id="gneE3_0" index="0" speed="13.89" length="21.44" shape="139.30,74.05 139.05,95.49"/>
    </edge>
    <edge id="gneE4" from="gneJ1" to="gneJ5" priority="-1">
        <lane id="gneE4_0" index="0" speed="13.89" length="38.70" shape="60.64,60.51 61.95,21.83"/>
    </edge>
    <edge id="gneE5" from="gneJ5" to="gneJ3" priority="-1">
        <lane id="gneE5_0" index="0" speed="13.89" length="62.30" shape="71.06,12.77 133.35,11.48"/>
    </edge>
    <edge id="gneE6" from="gneJ5" to="gneJ6" priority="-1">
        <lane id="gneE6_0" index="0" speed="13.89" length="38.38" shape="62.26,7.21 62.60,-31.17"/>
    </edge>
    <edge id="gneE7" from="gneJ5" to="gneJ7" priority="-1">
        <lane id="gneE7_0" index="0" speed="13.89" length="58.03" shape="56.45,16.25 -1.56,17.34"/>
    </edge>
    <edge id="gneE8" from="gneJ3" to="gneJ8" priority="-1">
        <lane id="gneE8_0" index="0" speed="13.89" length="39.60" shape="139.23,5.50 139.22,-34.10"/>
    </edge>
    <edge id="gneE9" from="gneJ2" to="gneJ9" priority="-1">
        <lane id="gneE9_0" index="0" speed="13.89" length="44.81" shape="145.15,65.21 189.96,65.58"/>
    </edge>

    <tlLogic id="gneJ0" type="static" programID="0" offset="0">
        <phase duration="42" state="GGGgrr"/>
        <phase duration="42" state="GrrrGG"/>
    </tlLogic>
    <tlLogic id="gneJ1" type="static" programID="0" offset="0">
        <phase duration="42" state="rrrGGgrrrGGg"/>
        <phase duration="42" state="GGgrrrGGgrrr"/>
    </tlLogic>
    <tlLogic id="gneJ2" type="static" programID="0" offset="0">
        <phase duration="42" state="GGgrrrGGgrrr"/>
        <phase duration="42" state="rrrGGgrrrGGg"/>
    </tlLogic>
    <tlLogic id="gneJ3" type="static" programID="0" offset="0">
        <phase duration="42" state="GGgrrrGGgrrr"/>
        <phase duration="42" state="rrrGGgrrrGGg"/>
    </tlLogic>
    <tlLogic id="gneJ5" type="static" programID="0" offset="0">
        <phase duration="42" state="GGgrrrGGgrrr"/>
        <phase duration="42" state="rrrGGgrrrGGg"/>
    </tlLogic>

    <junction id="gneJ0" type="traffic_light" x="-2.53" y="67.33" incLanes="-gneE0_0 -gneE17_0 -gneE14_0" intLanes=":gneJ0_0_0 :gneJ0_1_0 :gneJ0_2_0 :gneJ0_6_0 :gneJ0_4_0 :gneJ0_5_0" shape="4.28,70.59 4.33,64.19 1.50,64.17 -0.59,64.12 -2.31,64.04 -4.03,63.90 -6.11,63.68 -8.92,63.35 -9.68,69.71 -7.61,70.38 -6.91,70.99 -6.43,71.79 -6.17,72.78 -6.14,73.95 0.25,74.35 0.80,72.25 1.37,71.52 2.14,71.00 3.11,70.69">
        <request index="0" response="000000" foes="001000" cont="0"/>
        <request index="1" response="000000" foes="111000" cont="0"/>
        <request index="2" response="000000" foes="100000" cont="0"/>
        <request index="3" response="000011" foes="100011" cont="1"/>
        <request index="4" response="000010" foes="000010" cont="0"/>
        <request index="5" response="001110" foes="001110" cont="0"/>
    </junction>
    <junction id="gneJ1" type="traffic_light" x="61.99" y="67.92" incLanes="-gneE1_0 -gneE4_0 gneE0_0 -gneE15_0" intLanes=":gneJ1_0_0 :gneJ1_1_0 :gneJ1_12_0 :gneJ1_3_0 :gneJ1_4_0 :gneJ1_13_0 :gneJ1_6_0 :gneJ1_7_0 :gneJ1_14_0 :gneJ1_9_0 :gneJ1_10_0 :gneJ1_15_0" shape="69.40,71.01 69.30,64.61 67.09,64.20 66.33,63.65 65.80,62.88 65.50,61.89 65.43,60.67 59.04,60.45 58.50,62.80 57.89,63.62 57.06,64.20 56.01,64.55 54.74,64.65 54.68,71.05 56.89,71.52 57.65,72.08 58.18,72.86 58.48,73.87 58.55,75.09 64.95,75.29 65.50,72.94 66.13,72.11 66.99,71.51 68.08,71.14">
        <request index="0"  response="000000010000" foes="000100010000" cont="0"/>
        <request index="1"  response="111000110000" foes="111100110000" cont="0"/>
        <request index="2"  response="110011110000" foes="110011110000" cont="1"/>
        <request index="3"  response="000000000000" foes="100010000000" cont="0"/>
        <request index="4"  response="000100000100" foes="100110000111" cont="0"/>
        <request index="5"  response="011100000100" foes="011110000110" cont="1"/>
        <request index="6"  response="010000000000" foes="010000000100" cont="0"/>
        <request index="7"  response="110000111000" foes="110000111100" cont="0"/>
        <request index="8"  response="110000110011" foes="110000110011" cont="1"/>
        <request index="9"  response="000000000000" foes="000000100010" cont="0"/>
        <request index="10" response="000100000100" foes="000111100110" cont="0"/>
        <request index="11" response="000100011100" foes="000110011110" cont="1"/>
    </junction>
    <junction id="gneJ10" type="dead_end" x="190.78" y="9.52" incLanes="gneE10_0" intLanes="" shape="190.78,9.52 190.56,6.33 190.78,9.52"/>
    <junction id="gneJ11" type="dead_end" x="120.92" y="-76.59" incLanes="gneE11_0" intLanes="" shape="120.92,-76.59 118.03,-75.21 120.92,-76.59"/>
    <junction id="gneJ12" type="dead_end" x="35.28" y="-76.84" incLanes="gneE12_0" intLanes="" shape="35.28,-76.84 32.59,-75.10 35.28,-76.84"/>
    <junction id="gneJ13" type="dead_end" x="-51.37" y="-17.39" incLanes="gneE13_0" intLanes="" shape="-51.37,-17.39 -53.17,-14.75 -51.37,-17.39"/>
    <junction id="gneJ14" type="dead_end" x="-5.78" y="120.14" incLanes="gneE14_0" intLanes="" shape="-5.78,120.14 -2.59,120.34 -5.78,120.14"/>
    <junction id="gneJ15" type="priority" x="60.21" y="122.91" incLanes="gneE16_0 gneE15_0" intLanes=":gneJ15_0_0 :gneJ15_1_0" shape="65.54,124.54 63.56,118.46 57.16,118.25 57.31,120.96 57.96,123.00 59.11,124.38 60.76,125.10 62.90,125.15">
        <request index="0" response="00" foes="00" cont="0"/>
        <request index="1" response="00" foes="00" cont="0"/>
    </junction>
    <junction id="gneJ18" type="dead_end" x="-65.76" y="59.83" incLanes="gneE17_0" intLanes="" shape="-65.76,59.83 -66.14,63.01 -65.76,59.83"/>
    <junction id="gneJ2" type="traffic_light" x="137.78" y="66.75" incLanes="-gneE9_0 -gneE2_0 gneE1_0 -gneE3_0" intLanes=":gneJ2_0_0 :gneJ2_1_0 :gneJ2_12_0 :gneJ2_3_0 :gneJ2_4_0 :gneJ2_13_0 :gneJ2_6_0 :gneJ2_7_0 :gneJ2_14_0 :gneJ2_9_0 :gneJ2_10_0 :gneJ2_15_0" shape="145.11,70.01 145.16,63.61 142.97,63.14 142.22,62.58 141.71,61.80 141.43,60.80 141.39,59.58 135.00,59.22 134.38,61.65 133.74,62.51 132.87,63.14 131.77,63.52 130.44,63.66 130.54,70.06 132.76,70.47 133.53,71.01 134.08,71.78 134.40,72.77 134.50,74.00 140.90,74.07 141.39,71.80 141.97,71.00 142.79,70.44 143.84,70.11">
        <request index="0"  response="000000000000" foes="000100010000" cont="0"/>
        <request index="1"  response="100000100000" foes="111100110000" cont="0"/>
        <request index="2"  response="100011100000" foes="110011110000" cont="1"/>
        <request index="3"  response="000010000000" foes="100010000000" cont="0"/>
        <request index="4"  response="000110000111" foes="100110000111" cont="0"/>
        <request index="5"  response="011110000110" foes="011110000110" cont="1"/>
        <request index="6"  response="000000000000" foes="010000000100" cont="0"/>
        <request index="7"  response="100000100000" foes="110000111100" cont="0"/>
        <request index="8"  response="100000100011" foes="110000110011" cont="1"/>
        <request index="9"  response="000000000010" foes="000000100010" cont="0"/>
        <request index="10" response="000111000110" foes="000111100110" cont="0"/>
        <request index="11" response="000110011110" foes="000110011110" cont="1"/>
    </junction>
    <junction id="gneJ3" type="traffic_light" x="140.83" y="12.93" incLanes="-gneE10_0 -gneE8_0 gneE5_0 gneE2_0" intLanes=":gneJ3_0_0 :gneJ3_1_0 :gneJ3_12_0 :gneJ3_3_0 :gneJ3_4_0 :gneJ3_13_0 :gneJ3_6_0 :gneJ3_7_0 :gneJ3_14_0 :gneJ3_9_0 :gneJ3_10_0 :gneJ3_15_0" shape="148.46,15.61 148.02,9.23 145.81,8.93 145.03,8.43 144.48,7.69 144.14,6.71 144.03,5.50 137.63,5.50 137.15,7.89 136.55,8.74 135.71,9.35 134.63,9.73 133.31,9.88 133.44,16.28 135.64,16.68 136.39,17.22 136.90,17.98 137.17,18.97 137.22,20.19 143.61,20.55 144.26,17.95 144.95,17.00 145.88,16.30 147.05,15.84">
        <request index="0"  response="000000000000" foes="000100010000" cont="0"/>
        <request index="1"  response="100000100000" foes="111100110000" cont="0"/>
        <request index="2"  response="100011100000" foes="110011110000" cont="1"/>
        <request index="3"  response="000010000000" foes="100010000000" cont="0"/>
        <request index="4"  response="000110000111" foes="100110000111" cont="0"/>
        <request index="5"  response="011110000110" foes="011110000110" cont="1"/>
        <request index="6"  response="000000000000" foes="010000000100" cont="0"/>
        <request index="7"  response="100000100000" foes="110000111100" cont="0"/>
        <request index="8"  response="100000100011" foes="110000110011" cont="1"/>
        <request index="9"  response="000000000010" foes="000000100010" cont="0"/>
        <request index="10" response="000111000110" foes="000111100110" cont="0"/>
        <request index="11" response="000110011110" foes="000110011110" cont="1"/>
    </junction>