<?xml version="1.0" encoding="UTF-8"?>

<!-- generated on 02/06/20 11:28:03 by Eclipse SUMO netedit Version 1.4.0
<configuration xmlns:xsi="http://www.w3.org/2001/XMLSchema-instance" xsi:noNamespaceSchemaLocation="http://sumo.dlr.de/xsd/netconvertConfiguration.xsd">

    <output>
        <output-file value="E:\Sumo\complex_network.net.xml"/>
    </output>

    <processing>
        <offset.disable-normalization value="true"/>
    </processing>

    <junctions>
        <no-turnarounds value="true"/>
    </junctions>

    <report>
        <aggregate-warnings value="5"/>
    </report>

</configuration>
-->

<net version="1.3" junctionCornerDetail="5" limitTurnSpeed="5.50" xmlns:xsi="http://www.w3.org/2001/XMLSchema-instance" xsi:noNamespaceSchemaLocation="http://sumo.dlr.de/xsd/net_file.xsd">

    <location netOffset="0.00,0.00" convBoundary="1.64,-42.48,241.31,135.69" origBoundary="10000000000.00,10000000000.00,-10000000000.00,-10000000000.00" projParameter="!"/>

    <edge id=":gneJ1_0" function="internal">
        <lane id=":gneJ1_0_0" index="0" speed="13.89" length="14.58" shape="69.42,59.97 54.89,61.18"/>
    </edge>
    <edge id=":gneJ1_1" function="internal">
        <lane id=":gneJ1_1_0" index="0" speed="8.04" length="6.10" shape="69.42,59.97 65.54,59.80 63.54,58.85"/>
    </edge>
    <edge id=":gneJ1_6" function="internal">
        <lane id=":gneJ1_6_0" index="0" speed="8.04" length="8.20" shape="63.54,58.85 62.63,58.42 60.70,55.81 59.75,51.98"/>
    </edge>
    <edge id=":gneJ1_2" function="internal">
        <lane id=":gneJ1_2_0" index="0" speed="6.55" length="9.14" shape="62.93,51.65 63.54,54.11 64.77,55.78 66.62,56.68 69.10,56.78"/>
    </edge>
    <edge id=":gneJ1_3" function="internal">
        <lane id=":gneJ1_3_0" index="0" speed="7.93" length="14.35" shape="62.93,51.65 62.78,55.60 61.39,58.50 58.76,60.36 54.89,61.18"/>
    </edge>
    <edge id=":gneJ1_4" function="internal">
        <lane id=":gneJ1_4_0" index="0" speed="6.42" length="9.04" shape="54.69,57.98 57.12,57.47 58.78,56.30 59.65,54.47 59.75,51.98"/>
    </edge>
    <edge id=":gneJ1_5" function="internal">
        <lane id=":gneJ1_5_0" index="0" speed="13.89" length="14.46" shape="54.69,57.98 69.10,56.78"/>
    </edge>
    <edge id=":gneJ10_0" function="internal">
        <lane id=":gneJ10_0_0" index="0" speed="6.51" length="8.78" shape="109.64,17.22 109.07,14.90 107.89,13.29 106.11,12.39 103.72,12.20"/>
    </edge>
    <edge id=":gneJ10_1" function="internal">
        <lane id=":gneJ10_1_0" index="0" speed="12.56" length="12.96" shape="109.64,17.22 109.44,13.76 109.72,10.71 110.63,7.83 112.36,4.89"/>
    </edge>
    <edge id=":gneJ10_2" function="internal">
        <lane id=":gneJ10_2_0" index="0" speed="11.47" length="10.74" shape="114.96,6.76 113.32,9.35 112.60,11.48 112.53,13.78 112.82,16.89"/>
    </edge>
    <edge id=":gneJ10_3" function="internal">
        <lane id=":gneJ10_3_0" index="0" speed="10.89" length="4.44" shape="114.96,6.76 112.92,8.96 111.70,9.74"/>
    </edge>
    <edge id=":gneJ10_6" function="internal">
        <lane id=":gneJ10_6_0" index="0" speed="10.89" length="8.46" shape="111.70,9.74 110.36,10.60 107.30,11.68 103.72,12.20"/>
    </edge>
    <edge id=":gneJ10_4" function="internal">
        <lane id=":gneJ10_4_0" index="0" speed="9.67" length="10.07" shape="103.52,9.00 106.38,8.60 108.81,7.78 110.80,6.54 112.36,4.89"/>
    </edge>
    <edge id=":gneJ10_5" function="internal">
        <lane id=":gneJ10_5_0" index="0" speed="8.01" length="13.79" shape="103.52,9.00 107.27,9.30 110.07,10.71 111.92,13.24 112.82,16.89"/>
    </edge>
    <edge id=":gneJ2_0" function="internal">
        <lane id=":gneJ2_0_0" index="0" speed="6.94" length="9.37" shape="115.01,60.70 114.10,58.43 112.62,56.90 110.58,56.10 107.98,56.03"/>
    </edge>
    <edge id=":gneJ2_1" function="internal">
        <lane id=":gneJ2_1_0" index="0" speed="13.89" length="15.17" shape="115.01,60.70 114.21,57.01 113.54,53.26 112.99,49.49 112.56,45.74"/>
    </edge>
    <edge id=":gneJ2_2" function="internal">
        <lane id=":gneJ2_2_0" index="0" speed="8.58" length="5.93" shape="115.01,60.70 114.73,56.99 115.45,54.91"/>
    </edge>
    <edge id=":gneJ2_12" function="internal">
        <lane id=":gneJ2_12_0" index="0" speed="8.58" length="8.93" shape="115.45,54.91 115.81,53.86 118.25,51.30 122.05,49.31"/>
    </edge>
    <edge id=":gneJ2_3" function="internal">
        <lane id=":gneJ2_3_0" index="0" speed="7.19" length="10.17" shape="123.18,52.30 120.50,53.68 118.76,55.41 117.97,57.51 118.12,59.96"/>
    </edge>
    <edge id=":gneJ2_4" function="internal">
        <lane id=":gneJ2_4_0" index="0" speed="13.89" length="15.69" shape="123.18,52.30 119.54,53.56 115.69,54.64 111.80,55.48 107.98,56.03"/>
    </edge>
    <edge id=":gneJ2_5" function="internal">
        <lane id=":gneJ2_5_0" index="0" speed="7.61" length="15.29" shape="123.18,52.30 118.93,53.26 115.74,52.48 113.61,49.97 112.56,45.74"/>
    </edge>
    <edge id=":gneJ2_6" function="internal">
        <lane id=":gneJ2_6_0" index="0" speed="6.02" length="9.08" shape="115.74,45.42 116.37,47.93 117.63,49.42 119.52,49.88 122.05,49.31"/>
    </edge>
    <edge id=":gneJ2_7" function="internal">
        <lane id=":gneJ2_7_0" index="0" speed="13.89" length="14.75" shape="115.74,45.42 116.17,49.10 116.69,52.73 117.33,56.33 118.12,59.96"/>
    </edge>
    <edge id=":gneJ2_8" function="internal">
        <lane id=":gneJ2_8_0" index="0" speed="8.21" length="6.21" shape="115.74,45.42 115.63,49.72 114.90,51.48"/>
    </edge>
    <edge id=":gneJ2_13" function="internal">
        <lane id=":gneJ2_13_0" index="0" speed="8.21" length="8.76" shape="114.90,51.48 114.30,52.93 111.75,55.03 107.98,56.03"/>
    </edge>
    <edge id=":gneJ2_9" function="internal">
        <lane id=":gneJ2_9_0" index="0" speed="6.76" length="9.82" shape="107.66,52.84 110.05,52.18 111.67,50.78 112.50,48.63 112.56,45.74"/>
    </edge>
    <edge id=":gneJ2_10" function="internal">
        <lane id=":gneJ2_10_0" index="0" speed="13.89" length="14.86" shape="107.66,52.84 111.35,52.33 114.97,51.55 118.53,50.54 122.05,49.31"/>
    </edge>
    <edge id=":gneJ2_11" function="internal">
        <lane id=":gneJ2_11_0" index="0" speed="8.37" length="14.05" shape="107.66,52.84 111.52,52.96 114.55,54.18 116.75,56.52 118.12,59.96"/>
    </edge>
    <edge id=":gneJ3_0" function="internal">
        <lane id=":gneJ3_0_0" index="0" speed="7.93" length="10.21" shape="169.98,41.08 167.83,39.05 165.60,37.85 163.31,37.50 160.95,37.98"/>
    </edge>
    <edge id=":gneJ3_1" function="internal">
        <lane id=":gneJ3_1_0" index="0" speed="7.80" length="14.67" shape="169.98,41.08 167.78,37.64 167.32,34.42 168.61,31.45 171.64,28.70"/>
    </edge>
    <edge id=":gneJ3_2" function="internal">
        <lane id=":gneJ3_2_0" index="0" speed="6.26" length="9.04" shape="173.43,31.36 171.56,33.05 170.76,34.88 171.05,36.87 172.40,38.99"/>
    </edge>
    <edge id=":gneJ3_3" function="internal">
        <lane id=":gneJ3_3_0" index="0" speed="13.89" length="14.16" shape="173.43,31.36 170.39,33.32 167.39,35.05 164.29,36.59 160.95,37.98"/>
    </edge>
    <edge id=":gneJ3_4" function="internal">
        <lane id=":gneJ3_4_0" index="0" speed="13.89" length="13.42" shape="159.82,34.99 163.06,33.65 165.93,32.23 168.70,30.61 171.64,28.70"/>
    </edge>
    <edge id=":gneJ3_5" function="internal">
        <lane id=":gneJ3_5_0" index="0" speed="9.25" length="5.20" shape="159.82,34.99 163.19,34.26 164.92,34.49"/>
    </edge>
    <edge id=":gneJ3_6" function="internal">
        <lane id=":gneJ3_6_0" index="0" speed="9.25" length="8.95" shape="164.92,34.49 166.41,34.69 169.48,36.26 172.40,38.99"/>
    </edge>
    <edge id=":gneJ4_0" function="internal">
        <lane id=":gneJ4_0_0" index="0" speed="13.89" length="14.76" shape="205.77,9.95 193.36,17.95"/>
    </edge>
    <edge id=":gneJ4_1" function="internal">
        <lane id=":gneJ4_1_0" index="0" speed="7.50" length="6.14" shape="205.77,9.95 201.54,11.84 200.03,11.74"/>
    </edge>
    <edge id=":gneJ4_6" function="internal">
        <lane id=":gneJ4_6_0" index="0" speed="7.50" length="9.75" shape="200.03,11.74 198.23,11.63 195.84,9.33 194.38,4.94"/>
    </edge>
    <edge id=":gneJ4_2" function="internal">
        <lane id=":gneJ4_2_0" index="0" speed="5.84" length="9.13" shape="197.53,4.36 198.37,6.88 199.74,8.20 201.64,8.32 204.07,7.23"/>
    </edge>
    <edge id=":gneJ4_3" function="internal">
        <lane id=":gneJ4_3_0" index="0" speed="9.83" length="15.08" shape="197.53,4.36 197.93,8.81 197.37,12.56 195.85,15.60 193.36,17.95"/>
    </edge>
    <edge id=":gneJ4_4" function="internal">
        <lane id=":gneJ4_4_0" index="0" speed="8.60" length="11.36" shape="191.58,15.29 193.33,13.59 194.37,11.29 194.73,8.41 194.38,4.94"/>
    </edge>
    <edge id=":gneJ4_5" function="internal">
        <lane id=":gneJ4_5_0" index="0" speed="13.89" length="14.86" shape="191.58,15.29 204.07,7.23"/>
    </edge>
    <edge id=":gneJ5_0" function="internal">
        <lane id=":gneJ5_0_0" index="0" speed="10.69" length="10.86" shape="129.06,103.36 127.01,102.18 124.59,101.49 121.80,101.28 118.63,101.56"/>
    </edge>
    <edge id=":gneJ5_1" function="internal">
        <lane id=":gneJ5_1_0" index="0" speed="13.41" length="13.47" shape="129.06,103.36 126.52,100.98 124.71,98.34 123.44,95.35 122.48,91.94"/>
    </edge>
    <edge id=":gneJ5_2" function="internal">
        <lane id=":gneJ5_2_0" index="0" speed="12.34" length="11.37" shape="125.59,91.20 126.37,94.33 127.24,96.69 128.64,98.72 131.00,100.82"/>
    </edge>
    <edge id=":gneJ5_3" function="internal">
        <lane id=":gneJ5_3_0" index="0" speed="7.86" length="5.18" shape="125.59,91.20 125.96,95.20 125.58,96.30"/>
    </edge>
    <edge id=":gneJ5_6" function="internal">
        <lane id=":gneJ5_6_0" index="0" speed="7.86" length="9.33" shape="125.58,96.30 124.92,98.27 122.48,100.39 118.63,101.56"/>
    </edge>
    <edge id=":gneJ5_4" function="internal">
        <lane id=":gneJ5_4_0" index="0" speed="6.34" length="9.04" shape="118.14,98.40 120.54,97.67 122.06,96.35 122.70,94.44 122.48,91.94"/>
    </edge>
    <edge id=":gneJ5_5" function="internal">
        <lane id=":gneJ5_5_0" index="0" speed="11.84" length="13.44" shape="118.14,98.40 121.97,98.08 125.38,98.38 128.40,99.29 131.00,100.82"/>
    </edge>
    <edge id=":gneJ6_0" function="internal">
        <lane id=":gneJ6_0_0" index="0" speed="7.55" length="2.57" shape="163.84,129.07 163.09,128.96 162.58,128.82 162.12,128.57 161.51,128.12"/>
    </edge>
    <edge id=":gneJ6_1" function="internal">
        <lane id=":gneJ6_1_0" index="0" speed="13.89" length="0.86" shape="163.45,125.57 163.66,125.72 163.81,125.81 163.98,125.86 164.23,125.89"/>
    </edge>
    <edge id=":gneJ7_0" function="internal">
        <lane id=":gneJ7_0_0" index="0" speed="6.91" length="3.35" shape="201.99,76.50 201.02,76.31 200.38,76.06 199.84,75.63 199.17,74.91"/>
    </edge>
    <edge id=":gneJ7_1" function="internal">
        <lane id=":gneJ7_1_0" index="0" speed="4.34" length="1.12" shape="201.60,72.82 201.82,73.06 202.00,73.20 202.21,73.28 202.53,73.35"/>
    </edge>
    <edge id=":gneJ9_0" function="internal">
        <lane id=":gneJ9_0_0" index="0" speed="6.80" length="9.58" shape="56.50,20.96 55.87,18.45 54.57,16.70 52.62,15.72 50.00,15.50"/>
    </edge>
    <edge id=":gneJ9_1" function="internal">
        <lane id=":gneJ9_1_0" index="0" speed="13.89" length="14.73" shape="56.50,20.96 54.83,6.32"/>
    </edge>
    <edge id=":gneJ9_2" function="internal">
        <lane id=":gneJ9_2_0" index="0" speed="7.93" length="14.35" shape="56.50,20.96 56.65,17.00 58.05,14.10 60.68,12.25 64.55,11.44"/>
    </edge>
    <edge id=":gneJ9_3" function="internal">
        <lane id=":gneJ9_3_0" index="0" speed="6.42" length="9.04" shape="64.75,14.63 62.31,15.14 60.66,16.31 59.78,18.14 59.68,20.62"/>
    </edge>
    <edge id=":gneJ9_4" function="internal">
        <lane id=":gneJ9_4_0" index="0" speed="13.89" length="14.78" shape="64.75,14.63 50.00,15.50"/>
    </edge>
    <edge id=":gneJ9_5" function="internal">
        <lane id=":gneJ9_5_0" index="0" speed="8.28" length="6.06" shape="64.75,14.63 60.82,14.32 58.93,13.37"/>
    </edge>
    <edge id=":gneJ9_12" function="internal">
        <lane id=":gneJ9_12_0" index="0" speed="8.28" length="8.52" shape="58.93,13.37 57.86,12.83 55.86,10.16 54.83,6.32"/>
    </edge>
    <edge id=":gneJ9_6" function="internal">
        <lane id=":gneJ9_6_0" index="0" speed="6.85" length="9.64" shape="58.00,5.93 58.68,8.47 60.00,10.24 61.96,11.23 64.55,11.44"/>
    </edge>
    <edge id=":gneJ9_7" function="internal">
        <lane id=":gneJ9_7_0" index="0" speed="13.89" length="14.80" shape="58.00,5.93 59.68,20.62"/>
    </edge>
    <edge id=":gneJ9_8" function="internal">
        <lane id=":gneJ9_8_0" index="0" speed="7.88" length="14.46" shape="58.00,5.93 57.92,9.93 56.56,12.86 53.92,14.71 50.00,15.50"/>
    </edge>
    <edge id=":gneJ9_9" function="internal">
        <lane id=":gneJ9_9_0" index="0" speed="6.36" length="9.04" shape="49.82,12.30 52.28,11.81 53.93,10.65 54.78,8.82 54.83,6.32"/>
    </edge>
    <edge id=":gneJ9_10" function="internal">
        <lane id=":gneJ9_10_0" index="0" speed="13.89" length="14.75" shape="49.82,12.30 64.55,11.44"/>
    </edge>
    <edge id=":gneJ9_11" function="internal">
        <lane id=":gneJ9_11_0" index="0" speed="8.24" length="6.04" shape="49.82,12.30 53.79,12.64 55.62,13.57"/>
    </edge>
    <edge id=":gneJ9_13" function="internal">
        <lane id=":gneJ9_13_0" index="0" speed="8.24" length="8.52" shape="55.62,13.57 56.76,14.14 58.72,16.80 59.68,20.62"/>
    </edge>

    <edge id="-gneE0" from="gneJ1" to="gneJ0" priority="-1">
        <lane id="-gneE0_0" index="0" speed="13.89" length="49.19" shape="54.89,61.18 5.80,64.35"/>
    </edge>
    <edge id="-gneE1" from="gneJ2" to="gneJ1" priority="-1">
        <lane id="-gneE1_0" index="0" speed="13.89" length="38.76" shape="107.98,56.03 69.42,59.97"/>
    </edge>
    <edge id="-gneE10" from="gneJ9" to="gneJ10" priority="-1">
        <lane id="-gneE10_0" index="0" speed="13.89" length="39.05" shape="64.55,11.44 103.52,9.00"/>
    </edge>
    <edge id="-gneE11" from="gneJ2" to="gneJ10" priority="-1">
        <lane id="-gneE11_0" index="0" speed="13.89" length="28.67" shape="112.56,45.74 109.64,17.22"/>
    </edge>
    <edge id="-gneE12" from="gneJ11" to="gneJ9" priority="-1">
        <lane id="-gneE12_0" index="0" speed="13.89" length="39.76" shape="53.10,-33.53 58.00,5.93"/>
    </edge>
    <edge id="-gneE13" from="gneJ12" to="gneJ9" priority="-1">
        <lane id="-gneE13_0" index="0" speed="13.89" length="48.35" shape="1.55,14.94 49.82,12.30"/>
    </edge>
    <edge id="-gneE14" from="gneJ13" to="gneJ10" priority="-1">
        <lane id="-gneE14_0" index="0" speed="13.89" length="59.54" shape="149.79,-41.54 114.96,6.76"/>
    </edge>
    <edge id="-gneE15" from="gneJ14" to="gneJ5" priority="-1">
        <lane id="-gneE15_0" index="0" speed="13.89" length="50.29" shape="68.44,106.12 118.14,98.40"/>
    </edge>
    <edge id="-gneE16" from="gneJ15" to="gneJ6" priority="-1">
        <lane id="-gneE16_0" index="0" speed="13.89" length="68.07" shape="231.42,137.27 163.84,129.07"/>
    </edge>
    <edge id="-gneE17" from="gneJ16" to="gneJ7" priority="-1">
        <lane id="-gneE17_0" index="0" speed="13.89" length="32.88" shape="234.39,82.12 201.99,76.50"/>
    </edge>
    <edge id="-gneE18" from="gneJ17" to="gneJ4" priority="-1">
        <lane id="-gneE18_0" index="0" speed="13.89" length="42.95" shape="242.16,-12.86 205.77,9.95"/>
    </edge>
    <edge id="-gneE19" from="gneJ18" to="gneJ4" priority="-1">
        <lane id="-gneE19_0" index="0" speed="13.89" length="32.70" shape="191.62,-27.80 197.53,4.36"/>
    </edge>
    <edge id="-gneE2" from="gneJ3" to="gneJ2" priority="-1">
        <lane id="-gneE2_0" index="0" speed="13.89" length="40.39" shape="160.95,37.98 123.18,52.30"/>
    </edge>
    <edge id="-gneE3" from="gneJ4" to="gneJ3" priority="-1">
        <lane id="-gneE3_0" index="0" speed="13.89" length="24.03" shape="193.36,17.95 173.43,31.36"/>
    </edge>
    <edge id="-gneE5" from="gneJ5" to="gneJ2" priority="-1">
        <lane id="-gneE5_0" index="0" speed="13.89" length="32.12" shape="122.48,91.94 115.01,60.70"/>
    </edge>
    <edge id="-gneE6" from="gneJ6" to="gneJ5" priority="-1">
        <lane id="-gneE6_0" index="0" speed="13.89" length="40.82" shape="161.51,128.12 129.06,103.36"/>
    </edge>
    <edge id="-gneE8" from="gneJ7" to="gneJ3" priority="-1">
        <lane id="-gneE8_0" index="0" speed="13.89" length="44.68" shape="199.17,74.91 169.98,41.08"/>
    </edge>
    <edge id="-gneE9" from="gneJ9" to="gneJ1" priority="-1">
        <lane id="-gneE9_0" index="0" speed="13.89" length="31.19" shape="59.68,20.62 62.93,51.65"/>
    </edge>
    <edge id="gneE0" from="gneJ0" to="gneJ1" priority="-1">
        <lane id="gneE0_0" index="0" speed="13.89" length="49.19" shape="5.60,61.15 54.69,57.98"/>
    </edge>
    <edge id="gneE1" from="gneJ1" to="gneJ2" priority="-1">
        <lane id="gneE1_0" index="0" speed="13.89" length="38.76" shape="69.10,56.78 107.66,52.84"/>
    </edge>
    <edge id="gneE10" from="gneJ10" to="gneJ9" priority="-1">
        <lane id="gneE10_0" index="0" speed="13.89" length="39.05" shape="103.72,12.20 64.75,14.63"/>
    </edge>
    <edge id="gneE11" from="gneJ10" to="gneJ2" priority="-1">
        <lane id="gneE11_0" index="0" speed="13.89" length="28.67" shape="112.82,16.89 115.74,45.42"/>
    </edge>
    <edge id="gneE12" from="gneJ9" to="gneJ11" priority="-1">
        <lane id="gneE12_0" index="0" speed="13.89" length="39.76" shape="54.83,6.32 49.92,-33.13"/>
    </edge>
    <edge id="gneE13" from="gneJ9" to="gneJ12" priority="-1">
        <lane id="gneE13_0" index="0" speed="13.89" length="48.35" shape="50.00,15.50 1.72,18.14"/>
    </edge>
    <edge id="gneE14" from="gneJ10" to="gneJ13" priority="-1">
        <lane id="gneE14_0" index="0" speed="13.89" length="59.54" shape="112.36,4.89 147.19,-43.41"/>
    </edge>
    <edge id="gneE15" from="gneJ5" to="gneJ14" priority="-1">
        <lane id="gneE15_0" index="0" speed="13.89" length="50.29" shape="118.63,101.56 68.93,109.28"/>
    </edge>
    <edge id="gneE16" from="gneJ6" to="gneJ15" priority="-1">
        <lane id="gneE16_0" index="0" speed="13.89" length="68.07" shape="164.23,125.89 231.81,134.10"/>
    </edge>
    <edge id="gneE17" from="gneJ7" to="gneJ16" priority="-1">
        <lane id="gneE17_0" index="0" speed="13.89" length="32.88" shape="202.53,73.35 234.93,78.97"/>
    </edge>
    <edge id="gneE18" from="gneJ4" to="gneJ17" priority="-1">
        <lane id="gneE18_0" index="0" speed="13.89" length="42.95" shape="204.07,7.23 240.46,-15.57"/>
    </edge>
    <edge id="gneE19" from="gneJ4" to="gneJ18" priority="-1">
        <lane id="gneE19_0" index="0" speed="13.89" length="32.70" shape="194.38,4.94 188.48,-27.22"/>
    </edge>
    <edge id="gneE2" from="gneJ2" to="gneJ3" priority="-1">
        <lane id="gneE2_0" index="0" speed="13.89" length="40.39" shape="122.05,49.31 159.82,34.99"/>
    </edge>
    <edge id="gneE3" from="gneJ3" to="gneJ4" priority="-1">
        <lane id="gneE3_0" index="0" speed="13.89" length="24.03" shape="171.64,28.70 191.58,15.29"/>
    </edge>
    <edge id="gneE5" from="gneJ2" to="gneJ5" priority="-1">
        <lane id="gneE5_0" index="0" speed="13.89" length="32.12" shape="118.12,59.96 125.59,91.20"/>
    </edge>
    <edge id="gneE6" from="gneJ5" to="gneJ6" priority="-1">
        <lane id="gneE6_0" index="0" speed="13.89" length="40.82" shape="131.00,100.82 163.45,125.57"/>
    </edge>
    <edge id="gneE8" from="gneJ3" to="gneJ7" priority="-1">
        <lane id="gneE8_0" index="0" speed="13.89" length="44.68" shape="172.40,38.99 201.60,72.82"/>
    </edge>
    <edge id="gneE9" from="gneJ1" to="gneJ9" priority="-1">
        <lane id="gneE9_0" index="0" speed="13.89" length="31.19" shape="59.75,51.98 56.50,20.96"/>
    </edge>

    <junction id="gneJ0" type="dead_end" x="5.70" y="62.75" incLanes="-gneE0_0" intLanes="" shape="5.70,62.75 5.91,65.94 5.70,62.75"/>
    <junction id="gneJ1" type="priority" x="62.10" y="59.11" incLanes="-gneE1_0 -gneE9_0 gneE0_0" intLanes=":gneJ1_0_0 :gneJ1_6_0 :gneJ1_2_0 :gneJ1_3_0 :gneJ1_4_0 :gneJ1_5_0" shape="69.58,61.56 68.93,55.19 66.67,54.96 65.84,54.47 65.20,53.72 64.77,52.73 64.52,51.48 58.16,52.15 57.95,54.39 57.47,55.20 56.75,55.80 55.79,56.20 54.58,56.39 54.99,62.77">
        <request index="0" response="000000" foes="001000" cont="0"/>
        <request index="1" response="110000" foes="111000" cont="1"/>
        <request index="2" response="100000" foes="100000" cont="0"/>
        <request index="3" response="100011" foes="100011" cont="0"/>
        <request index="4" response="000000" foes="000010" cont="0"/>
        <request index="5" response="000000" foes="001110" cont="0"/>
    </junction>
    <junction id="gneJ10" type="priority" x="110.53" y="10.17" incLanes="-gneE11_0 -gneE14_0 -gneE10_0" intLanes=":gneJ10_0_0 :gneJ10_1_0 :gneJ10_2_0 :gneJ10_6_0 :gneJ10_4_0 :gneJ10_5_0" shape="108.05,17.38 114.42,16.73 114.20,14.73 114.09,13.18 114.15,11.89 114.48,10.68 115.15,9.34 116.26,7.69 111.07,3.95 109.22,5.72 108.03,6.37 106.67,6.87 105.13,7.22 103.42,7.41 103.82,13.80 106.00,14.09 106.80,14.57 107.41,15.28 107.82,16.22">
        <request index="0" response="000000" foes="001000" cont="0"/>
        <request index="1" response="000000" foes="111000" cont="0"/>
        <request index="2" response="000000" foes="100000" cont="0"/>
        <request index="3" response="000011" foes="100011" cont="1"/>
        <request index="4" response="000010" foes="000010" cont="0"/>
        <request index="5" response="001110" foes="001110" cont="0"/>
    </junction>
    <junction id="gneJ11" type="dead_end" x="51.51" y="-33.33" incLanes="gneE12_0" intLanes="" shape="51.51,-33.33 48.33,-32.94 51.51,-33.33"/>
    <junction id="gneJ12" type="dead_end" x="1.64" y="16.54" incLanes="gneE13_0" intLanes="" shape="1.64,16.54 1.81,19.74 1.64,16.54"/>
    <junction id="gneJ13" type="dead_end" x="148.49" y="-42.48" incLanes="gneE14_0" intLanes="" shape="148.49,-42.48 145.89,-44.35 148.49,-42.48"/>
    <junction id="gneJ14" type="dead_end" x="68.69" y="107.70" incLanes="gneE15_0" intLanes="" shape="68.69,107.70 69.18,110.86 68.69,107.70"/>
    <junction id="gneJ15" type="dead_end" x="231.61" y="135.69" incLanes="gneE16_0" intLanes="" shape="231.61,135.69 232.00,132.51 231.61,135.69"/>
    <junction id="gneJ16" type="dead_end" x="234.66" y="80.55" incLanes="gneE17_0" intLanes="" shape="234.66,80.55 235.21,77.39 234.66,80.55"/>
    <junction id="gneJ17" type="dead_end" x="241.31" y="-14.21" incLanes="gneE18_0" intLanes="" shape="241.31,-14.21 239.61,-16.93 241.31,-14.21"/>
    <junction id="gneJ18" type="dead_end" x="190.05" y="-27.51" incLanes="gneE19_0" intLanes="" shape="190.05,-27.51 186.90,-26.94 190.05,-27.51"/>
    <junction id="gneJ2" type="priority" x="114.98" y="53.70" incLanes="-gneE5_0 -gneE2_0 gneE11_0 gneE1_0" intLanes=":gneJ2_0_0 :gneJ2_1_0 :gneJ2_12_0 :gneJ2_3_0 :gneJ2_4_0 :gneJ2_5_0 :gneJ2_6_0 :gneJ2_7_0 :gneJ2_13_0 :gneJ2_9_0 :gneJ2_10_0 :gneJ2_11_0" shape="113.45,61.07 119.68,59.59 119.72,57.21 120.23,56.19 121.08,55.29 122.25,54.49 123.75,53.80 121.48,47.82 119.36,48.16 118.58,47.88 117.98,47.31 117.56,46.43 117.33,45.25 110.97,45.91 110.81,48.69 110.35,49.71 109.65,50.48 108.70,50.99 107.49,51.25 108.14,57.62 110.68,57.80 111.66,58.26 112.45,58.95 113.05,59.89">
        <request index="0"  response="000000000000" foes="000100010000" cont="0"/>
        <request index="1"  response="000000000000" foes="111100110000" cont="0"/>
        <request index="2"  response="000011000000" foes="110011110000" cont="1"/>
        <request index="3"  response="000010000000" foes="100010000000" cont="0"/>
        <request index="4"  response="000110000111" foes="100110000111" cont="0"/>
        <request index="5"  response="011110000110" foes="011110000110" cont="0"/>
        <request index="6"  response="000000000000" foes="010000000100" cont="0"/>
        <request index="7"  response="000000000000" foes="110000111100" cont="0"/>
        <request index="8"  response="000000000011" foes="110000110011" cont="1"/>
        <request index="9"  response="000000000010" foes="000000100010" cont="0"/>
        <request index="10" response="000111000110" foes="000111100110" cont="0"/>
        <request index="11" response="000110011110" foes="000110011110" cont="0"/>
    </junction>
    <junction id="gneJ3" type="priority" x="166.22" y="34.28" incLanes="-gneE8_0 -gneE3_0 gneE2_0" intLanes=":gneJ3_0_0 :gneJ3_1_0 :gneJ3_2_0 :gneJ3_3_0 :gneJ3_4_0 :gneJ3_6_0" shape="168.77,42.13 173.62,37.95 172.53,36.01 172.48,35.12 172.77,34.26 173.38,33.45 174.32,32.68 170.75,27.37 168.44,28.93 166.72,30.06 165.26,30.93 163.74,31.69 161.84,32.49 159.25,33.50 161.52,39.48 163.99,39.14 165.20,39.43 166.41,40.03 167.59,40.92">
        <request index="0" response="001000" foes="001000" cont="0"/>
        <request index="1" response="111000" foes="111000" cont="0"/>
        <request index="2" response="000000" foes="100000" cont="0"/>
        <request index="3" response="000000" foes="100011" cont="0"/>
        <request index="4" response="000000" foes="000010" cont="0"/>
        <request index="5" response="001100" foes="001110" cont="1"/>
    </junction>
    <junction id="gneJ4" type="priority" x="197.53" y="13.22" incLanes="-gneE18_0 -gneE19_0 gneE3_0" intLanes=":gneJ4_0_0 :gneJ4_6_0 :gneJ4_2_0 :gneJ4_3_0 :gneJ4_4_0 :gneJ4_5_0" shape="206.61,11.30 203.22,5.88 201.25,6.62 200.49,6.49 199.88,6.02 199.42,5.21 199.10,4.07 192.81,5.22 193.08,7.28 193.11,9.09 192.88,10.66 192.40,12.00 191.67,13.10 190.69,13.96 194.26,19.28">
        <request index="0" response="000000" foes="001000" cont="0"/>
        <request index="1" response="110000" foes="111000" cont="1"/>
        <request index="2" response="100000" foes="100000" cont="0"/>
        <request index="3" response="100011" foes="100011" cont="0"/>
        <request index="4" response="000000" foes="000010" cont="0"/>
        <request index="5" response="000000" foes="001110" cont="0"/>
    </junction>
    <junction id="gneJ5" type="priority" x="125.77" y="98.84" incLanes="-gneE6_0 gneE5_0 -gneE15_0" intLanes=":gneJ5_0_0 :gneJ5_1_0 :gneJ5_2_0 :gneJ5_6_0 :gneJ5_4_0 :gneJ5_5_0" shape="128.09,104.63 131.97,99.54 130.32,98.19 129.22,97.02 128.51,95.87 128.03,94.57 127.63,92.95 127.14,90.83 120.92,92.31 121.00,94.54 120.63,95.39 119.99,96.05 119.08,96.52 117.90,96.82 118.88,103.14 122.58,102.89 124.20,103.05 125.65,103.39 126.95,103.92">
        <request index="0" response="000000" foes="001000" cont="0"/>
        <request index="1" response="000000" foes="111000" cont="0"/>
        <request index="2" response="000000" foes="100000" cont="0"/>
        <request index="3" response="000011" foes="100011" cont="1"/>
        <request index="4" response="000010" foes="000010" cont="0"/>
        <request index="5" response="001110" foes="001110" cont="0"/>
    </junction>
    <junction id="gneJ6" type="priority" x="163.17" y="127.37" incLanes="-gneE16_0 gneE6_0" intLanes=":gneJ6_0_0 :gneJ6_1_0" shape="163.65,130.66 164.42,124.30 160.54,129.39 161.57,130.13 161.97,130.33 162.40,130.46 162.93,130.56">
        <request index="0" response="00" foes="00" cont="0"/>
        <request index="1" response="00" foes="00" cont="0"/>
    </junction>
    <junction id="gneJ7" type="priority" x="201.13" y="74.73" incLanes="-gneE17_0 gneE8_0" intLanes=":gneJ7_0_0 :gneJ7_1_0" shape="201.71,78.08 202.81,71.77 197.96,75.95 199.09,77.15 199.57,77.49 200.11,77.73 200.80,77.91">
        <request index="0" response="00" foes="00" cont="0"/>
        <request index="1" response="00" foes="00" cont="0"/>
    </junction>
    <junction id="gneJ9" type="priority" x="57.33" y="13.49" incLanes="gneE9_0 gneE10_0 -gneE12_0 -gneE13_0" intLanes=":gneJ9_0_0 :gneJ9_1_0 :gneJ9_2_0 :gneJ9_3_0 :gneJ9_4_0 :gneJ9_12_0 :gneJ9_6_0 :gneJ9_7_0 :gneJ9_8_0 :gneJ9_9_0 :gneJ9_10_0 :gneJ9_13_0" shape="54.91,21.12 61.28,20.46 61.49,18.22 61.96,17.41 62.68,16.81 63.64,16.42 64.85,16.23 64.45,9.84 61.99,9.51 61.08,8.95 60.37,8.13 59.88,7.06 59.59,5.73 53.24,6.52 53.07,8.75 52.61,9.55 51.90,10.14 50.94,10.53 49.74,10.71 50.09,17.10 52.57,17.44 53.48,17.98 54.18,18.78 54.65,19.83">
        <request index="0"  response="000000010000" foes="000100010000" cont="0"/>
        <request index="1"  response="111000110000" foes="111100110000" cont="0"/>
        <request index="2"  response="110011110000" foes="110011110000" cont="0"/>
        <request index="3"  response="000000000000" foes="100010000000" cont="0"/>
        <request index="4"  response="000000000000" foes="100110000111" cont="0"/>
        <request index="5"  response="011000000000" foes="011110000110" cont="1"/>
        <request index="6"  response="010000000000" foes="010000000100" cont="0"/>
        <request index="7"  response="110000111000" foes="110000111100" cont="0"/>
        <request index="8"  response="110000110011" foes="110000110011" cont="0"/>
        <request index="9"  response="000000000000" foes="000000100010" cont="0"/>
        <request index="10" response="000000000000" foes="000111100110" cont="0"/>
        <request index="11" response="000000011000" foes="000110011110" cont="1"/>
    </junction>

    <junction id=":gneJ1_6_0" type="internal" x="63.54" y="58.85" incLanes=":gneJ1_1_0 gneE0_0" intLanes=":gneJ1_3_0 :gneJ1_4_0 :gneJ1_5_0"/>
    <junction id=":gneJ10_6_0" type="internal" x="111.70" y="9.74" incLanes=":gneJ10_3_0 -gneE11_0" intLanes=":gneJ10_0_0 :gneJ10_1_0 :gneJ10_5_0"/>
    <junction id=":gneJ2_12_0" type="internal" x="115.45" y="54.91" incLanes=":gneJ2_2_0 gneE11_0" intLanes=":gneJ2_4_0 :gneJ2_5_0 :gneJ2_6_0 :gneJ2_7_0 :gneJ2_10_0 :gneJ2_11_0"/>