<?xml version="1.0" encoding="UTF-8"?>

<!-- generated on 04/16/20 13:40:24 by Eclipse SUMO netedit Version 1.4.0
<configuration xmlns:xsi="http://www.w3.org/2001/XMLSchema-instance" xsi:noNamespaceSchemaLocation="http://sumo.dlr.de/xsd/netconvertConfiguration.xsd">

    <output>
        <output-file value="E:\Sumo\complex2.net.xml"/>
    </output>

    <processing>
        <offset.disable-normalization value="true"/>
    </processing>

    <junctions>
        <no-turnarounds value="true"/>
    </junctions>

    <netedit>
        <route-files value="E:\Sumo\complex2.rou.xml"/>
    </netedit>

    <report>
        <aggregate-warnings value="5"/>
    </report>

</configuration>
-->

<routes xmlns:xsi="http://www.w3.org/2001/XMLSchema-instance" xsi:noNamespaceSchemaLocation="http://sumo.dlr.de/xsd/routes_file.xsd">
    <route edges="-gneE17 gneE0 gneE1 gneE2 gneE10" color="yellow" id="route_0"/>
    <route edges="-gneE13 -gneE7 -gneE4 gneE15 -gneE16 -gneE3 gneE9" color="yellow" id="route_1"/>
    <route edges="-gneE14 gneE0 gneE4 gneE6 gneE12" color="yellow" id="route_2"/>
    <route edges="-gneE11 -gneE8 -gneE5 -gneE4 -gneE0 gneE17" color="yellow" id="route_3"/>
</routes>
