<?xml version="1.0" encoding="UTF-8"?>

<!-- generated on 02/19/20 15:34:40 by Eclipse SUMO netedit Version 1.4.0
<configuration xmlns:xsi="http://www.w3.org/2001/XMLSchema-instance" xsi:noNamespaceSchemaLocation="http://sumo.dlr.de/xsd/netconvertConfiguration.xsd">

    <input>
        <sumo-net-file value="E:\Sumo\complex_network.net.xml"/>
    </input>

    <output>
        <output-file value="E:\Sumo\complex_network.net.xml"/>
    </output>

    <processing>
        <geometry.min-radius.fix.railways value="false"/>
        <geometry.max-grade.fix value="false"/>
        <offset.disable-normalization value="true"/>
        <lefthand value="false"/>
    </processing>

    <junctions>
        <no-turnarounds value="true"/>
        <junctions.corner-detail value="5"/>
        <junctions.limit-turn-speed value="5.5"/>
        <rectangular-lane-cut value="false"/>
    </junctions>

    <pedestrian>
        <walkingareas value="false"/>
    </pedestrian>

    <netedit>
        <route-files value="E:\Sumo\complex.rou.xml"/>
    </netedit>

    <report>
        <aggregate-warnings value="5"/>
    </report>

</configuration>
-->

<routes xmlns:xsi="http://www.w3.org/2001/XMLSchema-instance" xsi:noNamespaceSchemaLocation="http://sumo.dlr.de/xsd/routes_file.xsd">
    <route edges="gneE0 gneE1 gneE2 gneE3 gneE18" color="yellow" id="route_0"/>
    <route edges="-gneE12 -gneE9 gneE1 gneE2 gneE8 gneE17" color="yellow" id="route_1"/>
    <flow id="flow_0" begin="0.00" from="gneE0" to="gneE18" via="gneE1 gneE2 gneE3" end="3600.00" number="1800"/>
    <flow id="flow_1" begin="0.00" from="-gneE12" to="gneE17" via="-gneE9 gneE1 gneE2 gneE8" end="3600.00" number="1800"/>
</routes>
