<?xml version="1.0" encoding="UTF-8"?>

<!-- generated on 02/26/20 16:04:23 by Eclipse SUMO netedit Version 1.4.0
<configuration xmlns:xsi="http://www.w3.org/2001/XMLSchema-instance" xsi:noNamespaceSchemaLocation="http://sumo.dlr.de/xsd/netconvertConfiguration.xsd">

    <output>
        <output-file value="E:\Sumo\3.net.xml"/>
    </output>

    <processing>
        <offset.disable-normalization value="true"/>
    </processing>

    <junctions>
        <no-turnarounds value="true"/>
    </junctions>

    <report>
        <aggregate-warnings value="5"/>
    </report>

</configuration>
-->

<net version="1.3" junctionCornerDetail="5" limitTurnSpeed="5.50" xmlns:xsi="http://www.w3.org/2001/XMLSchema-instance" xsi:noNamespaceSchemaLocation="http://sumo.dlr.de/xsd/net_file.xsd">

    <location netOffset="0.00,0.00" convBoundary="4.94,37.77,117.79,96.24" origBoundary="10000000000.00,10000000000.00,-10000000000.00,-10000000000.00" projParameter="!"/>

    <edge id=":gneJ3_0" function="internal">
        <lane id=":gneJ3_0_0" index="0" speed="6.54" length="9.08" shape="49.27,69.52 46.81,69.85 45.04,70.90 43.96,72.65 43.56,75.11"/>
    </edge>
    <edge id=":gneJ3_1" function="internal">
        <lane id=":gneJ3_1_0" index="0" speed="13.89" length="14.43" shape="49.27,69.52 34.84,69.38"/>
    </edge>
    <edge id=":gneJ3_2" function="internal">
        <lane id=":gneJ3_2_0" index="0" speed="8.01" length="5.95" shape="49.27,69.52 45.42,68.94 43.66,67.87"/>
    </edge>
    <edge id=":gneJ3_12" function="internal">
        <lane id=":gneJ3_12_0" index="0" speed="8.01" length="8.26" shape="43.66,67.87 42.69,67.27 41.05,64.50 40.52,60.64"/>
    </edge>
    <edge id=":gneJ3_3" function="internal">
        <lane id=":gneJ3_3_0" index="0" speed="6.52" length="9.06" shape="43.72,60.65 44.06,63.12 45.10,64.88 46.84,65.95 49.29,66.32"/>
    </edge>
    <edge id=":gneJ3_4" function="internal">
        <lane id=":gneJ3_4_0" index="0" speed="13.89" length="14.45" shape="43.72,60.65 43.56,75.11"/>
    </edge>
    <edge id=":gneJ3_5" function="internal">
        <lane id=":gneJ3_5_0" index="0" speed="7.99" length="5.99" shape="43.72,60.65 43.15,64.51 42.06,66.30"/>
    </edge>
    <edge id=":gneJ3_13" function="internal">
        <lane id=":gneJ3_13_0" index="0" speed="7.99" length="8.23" shape="42.06,66.30 41.48,67.25 38.71,68.87 34.84,69.38"/>
    </edge>
    <edge id=":gneJ3_6" function="internal">
        <lane id=":gneJ3_6_0" index="0" speed="6.49" length="9.03" shape="34.88,66.18 37.34,65.86 39.10,64.83 40.16,63.09 40.52,60.64"/>
    </edge>
    <edge id=":gneJ3_7" function="internal">
        <lane id=":gneJ3_7_0" index="0" speed="13.89" length="14.41" shape="34.88,66.18 49.29,66.32"/>
    </edge>
    <edge id=":gneJ3_8" function="internal">
        <lane id=":gneJ3_8_0" index="0" speed="8.00" length="5.91" shape="34.88,66.18 38.74,66.78 40.44,67.83"/>
    </edge>
    <edge id=":gneJ3_14" function="internal">
        <lane id=":gneJ3_14_0" index="0" speed="8.00" length="8.31" shape="40.44,67.83 41.47,68.47 43.08,71.24 43.56,75.11"/>
    </edge>
    <edge id=":gneJ3_9" function="internal">
        <lane id=":gneJ3_9_0" index="0" speed="6.50" length="9.04" shape="40.37,75.05 40.05,72.60 39.03,70.83 37.29,69.76 34.84,69.38"/>
    </edge>
    <edge id=":gneJ3_10" function="internal">
        <lane id=":gneJ3_10_0" index="0" speed="13.89" length="14.42" shape="40.37,75.05 40.52,60.64"/>
    </edge>
    <edge id=":gneJ3_11" function="internal">
        <lane id=":gneJ3_11_0" index="0" speed="8.03" length="5.89" shape="40.37,75.05 40.98,71.21 42.03,69.51"/>
    </edge>
    <edge id=":gneJ3_15" function="internal">
        <lane id=":gneJ3_15_0" index="0" speed="8.03" length="8.32" shape="42.03,69.51 42.67,68.47 45.44,66.84 49.29,66.32"/>
    </edge>
    <edge id=":gneJ4_0" function="internal">
        <lane id=":gneJ4_0_0" index="0" speed="6.51" length="8.73" shape="83.39,75.11 82.97,72.77 81.90,71.10 80.19,70.08 77.84,69.73"/>
    </edge>
    <edge id=":gneJ4_1" function="internal">
        <lane id=":gneJ4_1_0" index="0" speed="8.11" length="13.67" shape="83.39,75.11 83.76,71.40 85.19,68.61 87.68,66.73 91.23,65.77"/>
    </edge>
    <edge id=":gneJ4_2" function="internal">
        <lane id=":gneJ4_2_0" index="0" speed="6.63" length="8.81" shape="91.62,68.94 89.34,69.56 87.74,70.78 86.82,72.58 86.59,74.98"/>
    </edge>
    <edge id=":gneJ4_3" function="internal">
        <lane id=":gneJ4_3_0" index="0" speed="13.89" length="13.82" shape="91.62,68.94 88.08,69.33 84.74,69.58 81.40,69.71 77.84,69.73"/>
    </edge>
    <edge id=":gneJ4_4" function="internal">
        <lane id=":gneJ4_4_0" index="0" speed="13.89" length="13.40" shape="77.86,66.53 81.36,66.51 84.56,66.39 87.75,66.15 91.23,65.77"/>
    </edge>
    <edge id=":gneJ4_5" function="internal">
        <lane id=":gneJ4_5_0" index="0" speed="8.01" length="5.61" shape="77.86,66.53 81.55,67.08 83.17,68.04"/>
    </edge>
    <edge id=":gneJ4_6" function="internal">
        <lane id=":gneJ4_6_0" index="0" speed="8.01" length="8.10" shape="83.17,68.04 84.24,68.67 85.92,71.31 86.59,74.98"/>
    </edge>

    <edge id="-gneE1" from="gneJ3" to="gneJ2" priority="-1">
        <lane id="-gneE1_0" index="0" speed="13.89" length="29.93" shape="34.84,69.38 4.92,69.00"/>
    </edge>
    <edge id="-gneE2" from="gneJ3" to="gneJ4" priority="-1">
        <lane id="-gneE2_0" index="0" speed="13.89" length="28.57" shape="49.29,66.32 77.86,66.53"/>
    </edge>
    <edge id="-gneE3" from="gneJ5" to="gneJ3" priority="-1">
        <lane id="-gneE3_0" index="0" speed="13.89" length="22.87" shape="43.84,37.78 43.72,60.65"/>
    </edge>
    <edge id="-gneE4" from="gneJ6" to="gneJ3" priority="-1">
        <lane id="-gneE4_0" index="0" speed="13.89" length="21.16" shape="40.01,96.21 40.37,75.05"/>
    </edge>
    <edge id="-gneE5" from="gneJ7" to="gneJ4" priority="-1">
        <lane id="-gneE5_0" index="0" speed="13.89" length="26.56" shape="117.99,65.69 91.62,68.94"/>
    </edge>
    <edge id="-gneE6" from="gneJ8" to="gneJ4" priority="-1">
        <lane id="-gneE6_0" index="0" speed="13.89" length="20.74" shape="84.22,95.83 83.39,75.11"/>
    </edge>
    <edge id="gneE1" from="gneJ2" to="gneJ3" priority="-1">
        <lane id="gneE1_0" index="0" speed="13.89" length="29.93" shape="4.96,65.80 34.88,66.18"/>
    </edge>
    <edge id="gneE2" from="gneJ4" to="gneJ3" priority="-1">
        <lane id="gneE2_0" index="0" speed="13.89" length="28.57" shape="77.84,69.73 49.27,69.52"/>
    </edge>
    <edge id="gneE3" from="gneJ3" to="gneJ5" priority="-1">
        <lane id="gneE3_0" index="0" speed="13.89" length="22.87" shape="40.52,60.64 40.64,37.77"/>
    </edge>
    <edge id="gneE4" from="gneJ3" to="gneJ6" priority="-1">
        <lane id="gneE4_0" index="0" speed="13.89" length="21.16" shape="43.56,75.11 43.21,96.26"/>
    </edge>
    <edge id="gneE5" from="gneJ4" to="gneJ7" priority="-1">
        <lane id="gneE5_0" index="0" speed="13.89" length="26.56" shape="91.23,65.77 117.59,62.52"/>
    </edge>
    <edge id="gneE6" from="gneJ4" to="gneJ8" priority="-1">
        <lane id="gneE6_0" index="0" speed="13.89" length="20.74" shape="86.59,74.98 87.41,95.70"/>
    </edge>

    <tlLogic id="gneJ3" type="static" programID="0" offset="0">
        <phase duration="42" state="GGgrrrGGgrrr"/>
        <phase duration="42" state="rrrGGgrrrGGg"/>
    </tlLogic>
    <tlLogic id="gneJ4" type="static" programID="0" offset="0">
        <phase duration="42" state="rrGGGg"/>
        <phase duration="42" state="GGGrrr"/>
    </tlLogic>

    <junction id="gneJ2" type="dead_end" x="4.94" y="67.40" incLanes="-gneE1_0" intLanes="" shape="4.94,67.40 4.90,70.60 4.94,67.40"/>
    <junction id="gneJ3" type="traffic_light" x="42.08" y="67.87" incLanes="gneE2_0 -gneE3_0 gneE1_0 -gneE4_0" intLanes=":gneJ3_0_0 :gneJ3_1_0 :gneJ3_12_0 :gneJ3_3_0 :gneJ3_4_0 :gneJ3_13_0 :gneJ3_6_0 :gneJ3_7_0 :gneJ3_14_0 :gneJ3_9_0 :gneJ3_10_0 :gneJ3_15_0" shape="49.25,71.12 49.30,64.72 47.08,64.26 46.31,63.69 45.75,62.90 45.43,61.89 45.32,60.66 38.92,60.63 38.47,62.84 37.91,63.62 37.13,64.16 36.12,64.48 34.90,64.58 34.82,70.98 37.04,71.45 37.81,72.01 38.36,72.80 38.67,73.80 38.77,75.03 45.16,75.13 45.65,72.89 46.22,72.11 47.01,71.55 48.02,71.22">
        <request index="0"  response="000000000000" foes="000100010000" cont="0"/>
        <request index="1"  response="100000100000" foes="111100110000" cont="0"/>
        <request index="2"  response="100011100000" foes="110011110000" cont="1"/>
        <request index="3"  response="000010000000" foes="100010000000" cont="0"/>
        <request index="4"  response="000110000111" foes="100110000111" cont="0"/>
        <request index="5"  response="011110000110" foes="011110000110" cont="1"/>
        <request index="6"  response="000000000000" foes="010000000100" cont="0"/>
        <request index="7"  response="100000100000" foes="110000111100" cont="0"/>
        <request index="8"  response="100000100011" foes="110000110011" cont="1"/>
        <request index="9"  response="000000000010" foes="000000100010" cont="0"/>
        <request index="10" response="000111000110" foes="000111100110" cont="0"/>
        <request index="11" response="000110011110" foes="000110011110" cont="1"/>
    </junction>
    <junction id="gneJ4" type="traffic_light" x="84.72" y="68.18" incLanes="-gneE6_0 -gneE5_0 -gneE2_0" intLanes=":gneJ4_0_0 :gneJ4_1_0 :gneJ4_2_0 :gneJ4_3_0 :gneJ4_4_0 :gneJ4_6_0" shape="81.79,75.17 88.19,74.92 88.52,72.69 89.02,71.86 89.73,71.23 90.67,70.78 91.82,70.53 91.04,64.18 88.25,64.52 86.18,64.74 84.47,64.88 82.76,64.94 80.68,64.95 77.87,64.93 77.83,71.33 79.96,71.77 80.73,72.31 81.29,73.05 81.64,74.01">
        <request index="0" response="001000" foes="001000" cont="0"/>
        <request index="1" response="111000" foes="111000" cont="0"/>
        <request index="2" response="000000" foes="100000" cont="0"/>
        <request index="3" response="000000" foes="100011" cont="0"/>
        <request index="4" response="000000" foes="000010" cont="0"/>
        <request index="5" response="001100" foes="001110" cont="1"/>
    </junction>
    <junction id="gneJ5" type="dead_end" x="42.24" y="37.77" incLanes="gneE3_0" intLanes="" shape="42.24,37.77 39.04,37.76 42.24,37.77"/>
    <junction id="gneJ6" type="dead_end" x="41.61" y="96.24" incLanes="gneE4_0" intLanes="" shape="41.61,96.24 44.81,96.29 41.61,96.24"/>
    <junction id="gneJ7" type="dead_end" x="117.79" y="64.11" incLanes="gneE5_0" intLanes="" shape="117.79,64.11 117.40,60.93 117.79,64.11"/>
    <junction id="gneJ8" type="dead_end" x="85.82" y="95.77" incLanes="gneE6_0" intLanes="" shape="85.82,95.77 89.01,95.64 85.82,95.77"/>

    <junction id=":gneJ3_12_0" type="internal" x="43.66" y="67.87" incLanes=":gneJ3_2_0 gneE1_0" intLanes=":gneJ3_4_0 :gneJ3_5_0 :gneJ3_6_0 :gneJ3_7_0 :gneJ3_10_0 :gneJ3_11_0"/>
    <junction id=":gneJ3_13_0" type="internal" x="42.06" y="66.30" incLanes=":gneJ3_5_0 -gneE4_0" intLanes=":gneJ3_1_0 :gneJ3_2_0 :gneJ3_7_0 :gneJ3_8_0 :gneJ3_9_0 :gneJ3_10_0"/>
    <junction id=":gneJ3_14_0" type="internal" x="40.44" y="67.83" incLanes=":gneJ3_8_0 gneE2_0" intLanes=":gneJ3_0_0 :gneJ3_1_0 :gneJ3_4_0 :gneJ3_5_0 :gneJ3_10_0 :gneJ3_11_0"/>
    <junction id=":gneJ3_15_0" type="internal" x="42.03" y="69.51" incLanes=":gneJ3_11_0 -gneE3_0" intLanes=":gneJ3_1_0 :gneJ3_2_0 :gneJ3_3_0 :gneJ3_4_0 :gneJ3_7_0 :gneJ3_8_0"/>
    <junction id=":gneJ4_6_0" type="internal" x="83.17" y="68.04" incLanes=":gneJ4_5_0 -gneE5_0" intLanes=":gneJ4_1_0 :gneJ4_2_0 :gneJ4_3_0"/>

    <connection from="-gneE2" to="gneE5" fromLane="0" toLane="0" via=":gneJ4_4_0" tl="gneJ4" linkIndex="4" dir="s" state="O"/>
    <connection from="-gneE2" to="gneE6" fromLane="0" toLane="0" via=":gneJ4_5_0" tl="gneJ4" linkIndex="5" dir="l" state="o"/>
    <connection from="-gneE3" to="-gneE2" fromLane="0" toLane="0" via=":gneJ3_3_0" tl="gneJ3" linkIndex="3" dir="r" state="o"/>
    <connection from="-gneE3" to="gneE4" fromLane="0" toLane="0" via=":gneJ3_4_0" tl="gneJ3" linkIndex="4" dir="s" state="o"/>
    <connection from="-gneE3" to="-gneE1" fromLane="0" toLane="0" via=":gneJ3_5_0" tl="gneJ3" linkIndex="5" dir="l" state="o"/>
    <connection from="-gneE4" to="-gneE1" fromLane="0" toLane="0" via=":gneJ3_9_0" tl="gneJ3" linkIndex="9" dir="r" state="o"/>
    <connection from="-gneE4" to="gneE3" fromLane="0" toLane="0" via=":gneJ3_10_0" tl="gneJ3" linkIndex="10" dir="s" state="o"/>
    <connection from="-gneE4" to="-gneE2" fromLane="0" toLane="0" via=":gneJ3_11_0" tl="gneJ3" linkIndex="11" dir="l" state="o"/>
    <connection from="-gneE5" to="gneE6" fromLane="0" toLane="0" via=":gneJ4_2_0" tl="gneJ4" linkIndex="2" dir="r" state="O"/>
    <connection from="-gneE5" to="gneE2" fromLane="0" toLane="0" via=":gneJ4_3_0" tl="gneJ4" linkIndex="3" dir="s" state="O"/>
    <connection from="-gneE6" to="gneE2" fromLane="0" toLane="0" via=":gneJ4_0_0" tl="gneJ4" linkIndex="0" dir="r" state="o"/>
    <connection from="-gneE6" to="gneE5" fromLane="0" toLane="0" via=":gneJ4_1_0" tl="gneJ4" linkIndex="1" dir="l" state="o"/>
    <connection from="gneE1" to="gneE3" fromLane="0" toLane="0" via=":gneJ3_6_0" tl="gneJ3" linkIndex="6" dir="r" state="O"/>
    <connection from="gneE1" to="-gneE2" fromLane="0" toLane="0" via=":gneJ3_7_0" tl="gneJ3" linkIndex="7" dir="s" state="O"/>
    <connection from="gneE1" to="gneE4" fromLane="0" toLane="0" via=":gneJ3_8_0" tl="gneJ3" linkIndex="8" dir="l" state="o"/>
    <connection from="gneE2" to="gneE4" fromLane="0" toLane="0" via=":gneJ3_0_0" tl="gneJ3" linkIndex="0" dir="r" state="O"/>
    <connection from="gneE2" to="-gneE1" fromLane="0" toLane="0" via=":gneJ3_1_0" tl="gneJ3" linkIndex="1" dir="s" state="O"/>
    <connection from="gneE2" to="gneE3" fromLane="0" toLane="0" via=":gneJ3_2_0" tl="gneJ3" linkIndex="2" dir="l" state="o"/>

    <connection from=":gneJ3_0" to="gneE4" fromLane="0" toLane="0" dir="r" state="M"/>
    <connection from=":gneJ3_1" to="-gneE1" fromLane="0" toLane="0" dir="s" state="M"/>
    <connection from=":gneJ3_2" to="gneE3" fromLane="0" toLane="0" via=":gneJ3_12_0" dir="l" state="m"/>
    <connection from=":gneJ3_12" to="gneE3" fromLane="0" toLane="0" dir="l" state="M"/>
    <connection from=":gneJ3_3" to="-gneE2" fromLane="0" toLane="0" dir="r" state="M"/>
    <connection from=":gneJ3_4" to="gneE4" fromLane="0" toLane="0" dir="s" state="M"/>
    <connection from=":gneJ3_5" to="-gneE1" fromLane="0" toLane="0" via=":gneJ3_13_0" dir="l" state="m"/>
    <connection from=":gneJ3_13" to="-gneE1" fromLane="0" toLane="0" dir="l" state="M"/>
    <connection from=":gneJ3_6" to="gneE3" fromLane="0" toLane="0" dir="r" state="M"/>
    <connection from=":gneJ3_7" to="-gneE2" fromLane="0" toLane="0" dir="s" state="M"/>
    <connection from=":gneJ3_8" to="gneE4" fromLane="0" toLane="0" via=":gneJ3_14_0" dir="l" state="m"/>
    <connection from=":gneJ3_14" to="gneE4" fromLane="0" toLane="0" dir="l" state="M"/>
    <connection from=":gneJ3_9" to="-gneE1" fromLane="0" toLane="0" dir="r" state="M"/>
    <connection from=":gneJ3_10" to="gneE3" fromLane="0" toLane="0" dir="s" state="M"/>
    <connection from=":gneJ3_11" to="-gneE2" fromLane="0" toLane="0" via=":gneJ3_15_0" dir="l" state="m"/>
    <connection from=":gneJ3_15" to="-gneE2" fromLane="0" toLane="0" dir="l" state="M"/>
    <connection from=":gneJ4_0" to="gneE2" fromLane="0" toLane="0" dir="r" state="M"/>
    <connection from=":gneJ4_1" to="gneE5" fromLane="0" toLane="0" dir="l" state="M"/>
    <connection from=":gneJ4_2" to="gneE6" fromLane="0" toLane="0" dir="r" state="M"/>
    <connection from=":gneJ4_3" to="gneE2" fromLane="0" toLane="0" dir="s" state="M"/>
    <connection from=":gneJ4_4" to="gneE5" fromLane="0" toLane="0" dir="s" state="M"/>
    <connection from=":gneJ4_5" to="gneE6" fromLane="0" toLane="0" via=":gneJ4_6_0" dir="l" state="m"/>
    <connection from=":gneJ4_6" to="gneE6" fromLane="0" toLane="0" dir="l" state="M"/>

</net>
